Version 4
SHEET 1 880 680
WIRE 400 -112 192 -112
WIRE 192 -96 192 -112
WIRE 192 0 192 -16
WIRE 192 16 192 0
WIRE 400 32 400 -112
WIRE 16 64 -16 64
WIRE 112 64 96 64
WIRE 128 64 112 64
WIRE -16 128 -16 64
WIRE 192 192 192 112
WIRE -16 272 -16 208
WIRE 192 272 192 192
WIRE 192 272 -16 272
WIRE 400 272 400 112
WIRE 400 272 192 272
WIRE 192 288 192 272
FLAG 192 288 0
FLAG 192 0 Vc
FLAG 192 192 IeQ
FLAG 112 64 VB
SYMBOL npn 128 16 R0
SYMATTR InstName Q1
SYMATTR Value 2N2222
SYMBOL res 176 -112 R0
SYMATTR InstName RC
SYMATTR Value 1k
SYMBOL res 112 48 R90
WINDOW 0 0 56 VBottom 2
WINDOW 3 32 56 VTop 2
SYMATTR InstName RB
SYMATTR Value 100k
SYMBOL voltage 400 16 R0
SYMATTR InstName EC
SYMATTR Value 10
SYMBOL voltage -16 112 R0
SYMATTR InstName EB
SYMATTR Value 1.6
TEXT -144 320 Left 2 !.dc EC 0 12 0.1 EB 1.6 2.6 1
